data/H/Lines.dss
New Line.line0 Units=km Length=0.07565000000000001 bus1=n310508.1.2.3 bus2=n310509.1.2.3 switch=n enabled=y phases=3 Linecode=unknown_linecode_3
New Line.line1 Units=km Length=0.001 bus1=n310509.1.2.3 bus2=n310506.1.2.3 switch=n enabled=y phases=3 Linecode=66_HDCU_(19/2.11)_3
New Line.line10 Units=km Length=0.00134 bus1=n310517.1.2.3 bus2=n310518.1.2.3 switch=n enabled=y phases=3 Linecode=unknown_linecode_3
New Line.line11 Units=km Length=0.03612 bus1=n310518.1.2.3 bus2=n310523.1.2.3 switch=n enabled=y phases=3 Linecode=unknown_linecode_3
New Line.line12 Units=km Length=0.03733 bus1=n310514.1.2.3 bus2=n310519.1.2.3 switch=n enabled=y phases=3 Linecode=unknown_linecode_3
New Line.line13 Units=km Length=0.0363 bus1=n310519.1.2.3 bus2=n310520.1.2.3 switch=n enabled=y phases=3 Linecode=unknown_linecode_3
New Line.line14 Units=km Length=0.04011 bus1=n310520.1.2.3 bus2=n310525.1.2.3 switch=n enabled=y phases=3 Linecode=unknown_linecode_3
New Line.line15 Units=km Length=0.02187 bus1=n310514.1.2.3 bus2=n310521.1.2.3 switch=n enabled=y phases=3 Linecode=unknown_linecode_3
New Line.line16 Units=km Length=0.02275 bus1=n310521.1.2.3 bus2=n310522.1.2.3 switch=n enabled=y phases=3 Linecode=unknown_linecode_3
New Line.line17 Units=km Length=0.002 bus1=n310522.1.2.3 bus2=n670968.1.2.3 switch=n enabled=y phases=3 Linecode=unknown_linecode_3
New Line.line18 Units=km Length=0.0247 bus1=n310523.1.2.3 bus2=n310524.1.2.3 switch=n enabled=y phases=3 Linecode=unknown_linecode_3
New Line.line19 Units=km Length=0.00175 bus1=n310510.1.2.3 bus2=n670966.1.2.3 switch=n enabled=y phases=3 Linecode=66_HDCU_(19/2.11)_3
New Line.line2 Units=km Length=0.001 bus1=n310506.1.2.3 bus2=n310510.1.2.3 switch=n enabled=y phases=3 Linecode=66_HDCU_(19/2.11)_3
New Line.line20 Units=km Length=0.01267 bus1=n310510.1.2.3 bus2=n670969.1.2.3 switch=n enabled=y phases=3 Linecode=unknown_linecode_3
New Line.line21 Units=km Length=0.02977 bus1=n310524.1.2.3 bus2=n310527.1.2.3 switch=n enabled=y phases=3 Linecode=unknown_linecode_3
New Line.line22 Units=km Length=0.03432 bus1=n310525.1.2.3 bus2=n310526.1.2.3 switch=n enabled=y phases=3 Linecode=unknown_linecode_3
New Line.line23 Units=km Length=0.042159999999999996 bus1=n310526.1.2.3 bus2=n310529.1.2.3 switch=n enabled=y phases=3 Linecode=unknown_linecode_3
New Line.line24 Units=km Length=0.022 bus1=n310525.1.2.3 bus2=n670970.1.2.3 switch=n enabled=y phases=3 Linecode=unknown_linecode_3
New Line.line25 Units=km Length=0.003 bus1=n310527.1.2.3 bus2=n670971.1.2.3 switch=n enabled=y phases=3 Linecode=unknown_linecode_3
New Line.line26 Units=km Length=0.019039999999999998 bus1=n310511.1.2.3 bus2=n310528.1.2.3 switch=n enabled=y phases=3 Linecode=unknown_linecode_3
New Line.line27 Units=km Length=0.001 bus1=n310528.1.2.3 bus2=n670972.1.2.3 switch=n enabled=y phases=3 Linecode=unknown_linecode_3
New Line.line28 Units=km Length=0.0025 bus1=n310518.1.2.3 bus2=n670973.1.2.3 switch=n enabled=y phases=3 Linecode=unknown_linecode_3
New Line.line29 Units=km Length=0.0162 bus1=n310511.1.2.3 bus2=n670974.1.2.3 switch=n enabled=y phases=3 Linecode=25AL_ABC_3
New Line.line3 Units=km Length=0.034530000000000005 bus1=n310510.1.2.3 bus2=n310511.1.2.3 switch=n enabled=y phases=3 Linecode=66_HDCU_(19/2.11)_3
New Line.line30 Units=km Length=0.01939 bus1=n310527.1.2.3 bus2=n670975.1.2.3 switch=n enabled=y phases=3 Linecode=unknown_linecode_3
New Line.line31 Units=km Length=0.002 bus1=n310529.1.2.3 bus2=n670976.1.2.3 switch=n enabled=y phases=3 Linecode=unknown_linecode_3
New Line.line32 Units=km Length=0.01587 bus1=n310519.1.2.3 bus2=n670977.1.2.3 switch=n enabled=y phases=3 Linecode=25AL_ABC_3
New Line.line33 Units=km Length=0.01645 bus1=n310520.1.2.3 bus2=n670978.1.2.3 switch=n enabled=y phases=3 Linecode=25AL_ABC_3
New Line.line34 Units=km Length=0.02205 bus1=n310514.1.2.3 bus2=n670979.1.2.3 switch=n enabled=y phases=3 Linecode=25AL_ABC_3
New Line.line4 Units=km Length=0.0221 bus1=n310511.1.2.3 bus2=n310512.1.2.3 switch=n enabled=y phases=3 Linecode=66_HDCU_(19/2.11)_3
New Line.line5 Units=km Length=0.020350000000000004 bus1=n310512.1.2.3 bus2=n310513.1.2.3 switch=n enabled=y phases=3 Linecode=66_HDCU_(19/2.11)_3
New Line.line6 Units=km Length=0.00135 bus1=n310513.1.2.3 bus2=n310514.1.2.3 switch=n enabled=y phases=3 Linecode=66_HDCU_(19/2.11)_3
New Line.line7 Units=km Length=0.04448 bus1=n310514.1.2.3 bus2=n310515.1.2.3 switch=n enabled=y phases=3 Linecode=unknown_linecode_3
New Line.line8 Units=km Length=0.027350000000000003 bus1=n310515.1.2.3 bus2=n310516.1.2.3 switch=n enabled=y phases=3 Linecode=unknown_linecode_3
New Line.line9 Units=km Length=0.038509999999999996 bus1=n310516.1.2.3 bus2=n310517.1.2.3 switch=n enabled=y phases=3 Linecode=unknown_linecode_3
